data_test

_audit_creation_method generated by ABACUS

_cell_length_a 9.5
_cell_length_b 9.5
_cell_length_c 9.5
_cell_angle_alpha 90
_cell_angle_beta 90
_cell_angle_gamma 90

_symmetry_space_group_name_H-M 
_symmetry_Int_Tables_number 

loop_
_atom_site_label
_atom_site_fract_x
_atom_site_fract_y
_atom_site_fract_z
H 0.538935 0.405522 0.358719
H 0.391953 0.480618 0.438297
H 0.553264 0.567743 0.442642
H 0.528766 0.41525 0.541286
C 0.503151 0.467381 0.445262
