data_test

_audit_creation_method generated by ABACUS

_cell_length_a 9.5
_cell_length_b 9.5
_cell_length_c 9.5
_cell_angle_alpha 90
_cell_angle_beta 90
_cell_angle_gamma 90

_symmetry_space_group_name_H-M 
_symmetry_Int_Tables_number 

loop_
_atom_site_label
_atom_site_fract_x
_atom_site_fract_y
_atom_site_fract_z
H 0.540931 0.402075 0.353896
H 0.385587 0.481402 0.437899
H 0.556131 0.573479 0.442495
H 0.530202 0.412321 0.546678
C 0.503163 0.467365 0.445259
