data_test

_audit_creation_method generated by ABACUS

_cell_length_a 9.5
_cell_length_b 9.5
_cell_length_c 9.5
_cell_angle_alpha 90
_cell_angle_beta 90
_cell_angle_gamma 90

_symmetry_space_group_name_H-M 
_symmetry_Int_Tables_number 

loop_
_atom_site_label
_atom_site_fract_x
_atom_site_fract_y
_atom_site_fract_z
H 0.537248 0.408441 0.36281
H 0.397411 0.479958 0.438637
H 0.550825 0.562842 0.442767
H 0.527549 0.417732 0.5367
C 0.50314 0.467395 0.445265
