data_test

_audit_creation_method generated by ABACUS

_cell_length_a 9.5
_cell_length_b 9.5
_cell_length_c 9.5
_cell_angle_alpha 90
_cell_angle_beta 90
_cell_angle_gamma 90

_symmetry_space_group_name_H-M 
_symmetry_Int_Tables_number 

loop_
_atom_site_label
_atom_site_fract_x
_atom_site_fract_y
_atom_site_fract_z
H 0.536573 0.40961 0.364448
H 0.39961 0.479693 0.438774
H 0.549844 0.56087 0.442817
H 0.527061 0.418728 0.53486
C 0.503135 0.467401 0.445266
