data_test

_audit_creation_method generated by ABACUS

_cell_length_a 9.27069
_cell_length_b 9.5621
_cell_length_c 9.58764
_cell_angle_alpha 90.1781
_cell_angle_beta 88.9867
_cell_angle_gamma 89.9232

_symmetry_space_group_name_H-M 
_symmetry_Int_Tables_number 

loop_
_atom_site_label
_atom_site_fract_x
_atom_site_fract_y
_atom_site_fract_z
H 0.543005 0.406936 0.359006
H 0.399395 0.477474 0.434569
H 0.555241 0.561082 0.43897
H 0.530384 0.416975 0.532107
C 0.507737 0.465659 0.440603
