data_test

_audit_creation_method generated by ABACUS

_cell_length_a 9.27069
_cell_length_b 9.5621
_cell_length_c 9.58764
_cell_angle_alpha 90.1781
_cell_angle_beta 88.9867
_cell_angle_gamma 89.9232

_symmetry_space_group_name_H-M 
_symmetry_Int_Tables_number 

loop_
_atom_site_label
_atom_site_fract_x
_atom_site_fract_y
_atom_site_fract_z
H 0.547462 0.400167 0.349585
H 0.387155 0.478944 0.433851
H 0.560703 0.571623 0.438581
H 0.532932 0.411873 0.541313
C 0.507726 0.465643 0.440714
