data_test

_audit_creation_method generated by ABACUS

_cell_length_a 9.27069
_cell_length_b 9.5621
_cell_length_c 9.58764
_cell_angle_alpha 90.1781
_cell_angle_beta 88.9867
_cell_angle_gamma 89.9232

_symmetry_space_group_name_H-M 
_symmetry_Int_Tables_number 

loop_
_atom_site_label
_atom_site_fract_x
_atom_site_fract_y
_atom_site_fract_z
H 0.542192 0.408202 0.360768
H 0.401673 0.477208 0.434698
H 0.554241 0.559124 0.439031
H 0.529933 0.417895 0.530426
C 0.507735 0.465662 0.44058
