data_test

_audit_creation_method generated by ABACUS

_cell_length_a 9.70691
_cell_length_b 9.68815
_cell_length_c 9.58568
_cell_angle_alpha 91.0063
_cell_angle_beta 89.0541
_cell_angle_gamma 91.6643

_symmetry_space_group_name_H-M 
_symmetry_Int_Tables_number 

loop_
_atom_site_label
_atom_site_fract_x
_atom_site_fract_y
_atom_site_fract_z
H 0.531666 0.406832 0.359568
H 0.395926 0.477951 0.434543
H 0.548145 0.559719 0.439384
H 0.519578 0.419226 0.532529
C 0.498744 0.465842 0.441183
