data_test

_audit_creation_method generated by ABACUS

_cell_length_a 9.70691
_cell_length_b 9.68815
_cell_length_c 9.58568
_cell_angle_alpha 91.0063
_cell_angle_beta 89.0541
_cell_angle_gamma 91.6643

_symmetry_space_group_name_H-M 
_symmetry_Int_Tables_number 

loop_
_atom_site_label
_atom_site_fract_x
_atom_site_fract_y
_atom_site_fract_z
H 0.533403 0.403793 0.355398
H 0.390433 0.478629 0.434192
H 0.550578 0.564369 0.439236
H 0.520575 0.416939 0.536854
C 0.498773 0.465841 0.441212
