data_test

_audit_creation_method generated by ABACUS

_cell_length_a 9.70691
_cell_length_b 9.68815
_cell_length_c 9.58568
_cell_angle_alpha 91.0063
_cell_angle_beta 89.0541
_cell_angle_gamma 91.6643

_symmetry_space_group_name_H-M 
_symmetry_Int_Tables_number 

loop_
_atom_site_label
_atom_site_fract_x
_atom_site_fract_y
_atom_site_fract_z
H 0.53097 0.408053 0.361246
H 0.398147 0.47768 0.434684
H 0.54717 0.557856 0.43944
H 0.51918 0.420134 0.530801
C 0.498731 0.465842 0.441171
